1AZ8_lig_vina_out.pdbqt
 OpenBabel02072218533D

 32 33  0  0  1  0  0  0  0  0999 V2000
   29.6070   11.5250   17.8180 C   0  0  1  0  0  3  0  0  0  0  0  0
   29.2550   12.9370   17.9210 C   0  0  0  0  0  0  0  0  0  0  0  0
   28.7650   13.5510   19.0890 C   0  0  0  0  0  3  0  0  0  0  0  0
   28.4550   14.9110   19.0860 C   0  0  0  0  0  3  0  0  0  0  0  0
   28.6360   15.6380   17.9160 C   0  0  0  0  0  3  0  0  0  0  0  0
   29.1660   15.0250   16.7750 C   0  0  0  0  0  0  0  0  0  0  0  0
   29.4660   13.6810   16.7770 C   0  0  0  0  0  3  0  0  0  0  0  0
   29.3820   15.8070   15.5230 C   0  0  0  0  0  0  0  0  0  0  0  0
   30.0590   15.2470   14.5620 N   0  0  0  0  0  0  0  0  0  0  0  0
   30.3860   14.3240   14.6630 H   0  0  0  0  0  0  0  0  0  0  0  0
   28.9610   17.0390   15.3580 N   0  0  0  0  0  0  0  0  0  0  0  0
   28.0340   17.2770   15.5890 H   0  0  0  0  0  0  0  0  0  0  0  0
   29.5720   17.7240   15.0030 H   0  0  0  0  0  0  0  0  0  0  0  0
   31.0540   11.4040   18.2550 C   0  0  0  0  0  2  0  0  0  0  0  0
   31.5390    9.9760   18.3920 C   0  0  0  0  0  2  0  0  0  0  0  0
   32.9890    9.9310   17.9670 C   0  0  0  0  0  0  0  0  0  0  0  0
   33.9690    9.8870   18.9530 C   0  0  0  0  0  3  0  0  0  0  0  0
   35.3130    9.7880   18.5850 C   0  0  0  0  0  3  0  0  0  0  0  0
   35.7070    9.7980   17.2320 C   0  0  0  0  0  0  0  0  0  0  0  0
   34.7120    9.8740   16.2430 C   0  0  0  0  0  3  0  0  0  0  0  0
   33.3650    9.9160   16.6120 C   0  0  0  0  0  3  0  0  0  0  0  0
   37.1910    9.7620   16.8830 C   0  0  0  0  0  0  0  0  0  0  0  0
   37.9850   10.7430   17.2690 N   0  0  0  0  0  0  0  0  0  0  0  0
   37.6180   11.5040   17.7720 H   0  0  0  0  0  0  0  0  0  0  0  0
   37.7380    8.7520   16.2030 N   0  0  0  0  0  0  0  0  0  0  0  0
   37.4430    7.8280   16.3710 H   0  0  0  0  0  0  0  0  0  0  0  0
   38.4370    8.9310   15.5330 H   0  0  0  0  0  0  0  0  0  0  0  0
   28.6520   10.5610   18.5620 C   0  0  0  0  0  2  0  0  0  0  0  0
   27.2140   10.4580   18.0200 C   0  0  0  0  0  0  0  0  0  0  0  0
   26.9850    9.8480   16.9750 O   0  0  0  0  0  0  0  0  0  0  0  0
   26.2010   11.0220   18.7660 O   0  0  0  0  0  0  0  0  0  0  0  0
   26.0470   10.8990   20.1760 C   0  0  0  0  0  1  0  0  0  0  0  0
  1  2  1  0  0  0  0
  1 14  1  1  0  0  0
  1 28  1  0  0  0  0
  2  3  1  0  0  0  0
  4  3  2  0  0  0  0
  5  4  1  0  0  0  0
  6  7  1  0  0  0  0
  6  5  2  0  0  0  0
  7  2  2  0  0  0  0
  8  6  1  0  0  0  0
  9 10  1  0  0  0  0
  9  8  2  0  0  0  0
 11  8  1  0  0  0  0
 11 12  1  0  0  0  0
 13 11  1  0  0  0  0
 14 15  1  0  0  0  0
 16 15  1  0  0  0  0
 16 17  1  0  0  0  0
 18 17  2  0  0  0  0
 19 18  1  0  0  0  0
 20 21  1  0  0  0  0
 20 19  2  0  0  0  0
 21 16  2  0  0  0  0
 22 19  1  0  0  0  0
 22 23  2  0  0  0  0
 23 24  1  0  0  0  0
 25 26  1  0  0  0  0
 25 22  1  0  0  0  0
 27 25  1  0  0  0  0
 29 28  1  0  0  0  0
 29 31  1  0  0  0  0
 30 29  2  0  0  0  0
 31 32  1  0  0  0  0
M  END
>  <Pose>
1

>  <Score>
-7.718

$$$$
1AZ8_lig_vina_out.pdbqt
 OpenBabel02072218533D

 32 33  0  0  1  0  0  0  0  0999 V2000
   28.6130   11.4970   17.9970 C   0  0  1  0  0  3  0  0  0  0  0  0
   28.4870   12.9500   18.0350 C   0  0  0  0  0  0  0  0  0  0  0  0
   27.9430   13.6720   19.1140 C   0  0  0  0  0  3  0  0  0  0  0  0
   27.8650   15.0630   19.0540 C   0  0  0  0  0  3  0  0  0  0  0  0
   28.3300   15.7140   17.9180 C   0  0  0  0  0  3  0  0  0  0  0  0
   28.9100   14.9870   16.8730 C   0  0  0  0  0  0  0  0  0  0  0  0
   28.9810   13.6130   16.9300 C   0  0  0  0  0  3  0  0  0  0  0  0
   29.4300   15.6830   15.6600 C   0  0  0  0  0  0  0  0  0  0  0  0
   29.0650   16.9170   15.4580 N   0  0  0  0  0  0  0  0  0  0  0  0
   28.4870   17.3720   16.1120 H   0  0  0  0  0  0  0  0  0  0  0  0
   30.2010   15.1030   14.7690 N   0  0  0  0  0  0  0  0  0  0  0  0
   30.0920   15.3110   13.8140 H   0  0  0  0  0  0  0  0  0  0  0  0
   30.8890   14.4610   15.0590 H   0  0  0  0  0  0  0  0  0  0  0  0
   27.2560   10.9520   17.5970 C   0  0  0  0  0  2  0  0  0  0  0  0
   27.2960    9.5430   17.0440 C   0  0  0  0  0  2  0  0  0  0  0  0
   25.8780    9.0190   16.9950 C   0  0  0  0  0  0  0  0  0  0  0  0
   25.1710    9.1330   15.8030 C   0  0  0  0  0  3  0  0  0  0  0  0
   23.8800    8.6060   15.7160 C   0  0  0  0  0  3  0  0  0  0  0  0
   23.2490    8.0170   16.8300 C   0  0  0  0  0  0  0  0  0  0  0  0
   23.9610    7.9340   18.0390 C   0  0  0  0  0  3  0  0  0  0  0  0
   25.2730    8.4120   18.1080 C   0  0  0  0  0  3  0  0  0  0  0  0
   21.8120    7.5220   16.7050 C   0  0  0  0  0  0  0  0  0  0  0  0
   21.2880    6.7650   17.6500 N   0  0  0  0  0  0  0  0  0  0  0  0
   21.8280    6.5090   18.4310 H   0  0  0  0  0  0  0  0  0  0  0  0
   21.0380    7.8430   15.6650 N   0  0  0  0  0  0  0  0  0  0  0  0
   20.1680    7.3970   15.5440 H   0  0  0  0  0  0  0  0  0  0  0  0
   21.3370    8.5240   15.0210 H   0  0  0  0  0  0  0  0  0  0  0  0
   29.7760   10.9690   17.1210 C   0  0  0  0  0  2  0  0  0  0  0  0
   31.1180   10.7160   17.8330 C   0  0  0  0  0  0  0  0  0  0  0  0
   31.7260   11.6470   18.3630 O   0  0  0  0  0  0  0  0  0  0  0  0
   31.5780    9.4180   17.9000 O   0  0  0  0  0  0  0  0  0  0  0  0
   30.9210    8.2790   17.3540 C   0  0  0  0  0  1  0  0  0  0  0  0
  1 28  1  6  0  0  0
  1  2  1  0  0  0  0
  2  3  1  0  0  0  0
  4  3  2  0  0  0  0
  5  4  1  0  0  0  0
  6  7  1  0  0  0  0
  6  5  2  0  0  0  0
  7  2  2  0  0  0  0
  8  6  1  0  0  0  0
  9  8  2  0  0  0  0
  9 10  1  0  0  0  0
 11 13  1  0  0  0  0
 11  8  1  0  0  0  0
 12 11  1  0  0  0  0
 14  1  1  0  0  0  0
 15 14  1  0  0  0  0
 16 15  1  0  0  0  0
 16 21  1  0  0  0  0
 17 16  2  0  0  0  0
 18 17  1  0  0  0  0
 18 19  2  0  0  0  0
 19 20  1  0  0  0  0
 20 21  2  0  0  0  0
 22 19  1  0  0  0  0
 22 23  2  0  0  0  0
 23 24  1  0  0  0  0
 25 22  1  0  0  0  0
 26 25  1  0  0  0  0
 27 25  1  0  0  0  0
 28 29  1  0  0  0  0
 29 31  1  0  0  0  0
 29 30  2  0  0  0  0
 32 31  1  0  0  0  0
M  END
>  <Pose>
2

>  <Score>
-7.328

$$$$
1AZ8_lig_vina_out.pdbqt
 OpenBabel02072218533D

 32 33  0  0  1  0  0  0  0  0999 V2000
   29.4830   11.4570   18.0210 C   0  0  1  0  0  3  0  0  0  0  0  0
   29.2040   12.8870   18.0880 C   0  0  0  0  0  0  0  0  0  0  0  0
   28.7510   13.5560   19.2420 C   0  0  0  0  0  3  0  0  0  0  0  0
   28.5100   14.9290   19.2040 C   0  0  0  0  0  3  0  0  0  0  0  0
   28.7230   15.6150   18.0140 C   0  0  0  0  0  3  0  0  0  0  0  0
   29.2160   14.9470   16.8890 C   0  0  0  0  0  0  0  0  0  0  0  0
   29.4480   13.5900   16.9250 C   0  0  0  0  0  3  0  0  0  0  0  0
   29.4670   15.6840   15.6160 C   0  0  0  0  0  0  0  0  0  0  0  0
   30.2100   15.1100   14.7140 N   0  0  0  0  0  0  0  0  0  0  0  0
   30.5630   14.2050   14.8700 H   0  0  0  0  0  0  0  0  0  0  0  0
   29.0110   16.8920   15.3780 N   0  0  0  0  0  0  0  0  0  0  0  0
   29.6390   17.6400   15.2590 H   0  0  0  0  0  0  0  0  0  0  0  0
   28.0410   17.0480   15.3190 H   0  0  0  0  0  0  0  0  0  0  0  0
   30.9920   11.3070   18.0410 C   0  0  0  0  0  2  0  0  0  0  0  0
   31.4730    9.8910   17.8030 C   0  0  0  0  0  2  0  0  0  0  0  0
   32.8690    9.7690   18.3710 C   0  0  0  0  0  0  0  0  0  0  0  0
   33.8630   10.6050   17.8740 C   0  0  0  0  0  3  0  0  0  0  0  0
   35.1470   10.5500   18.4230 C   0  0  0  0  0  3  0  0  0  0  0  0
   35.4780    9.6200   19.4280 C   0  0  0  0  0  0  0  0  0  0  0  0
   34.4740    8.7580   19.9030 C   0  0  0  0  0  3  0  0  0  0  0  0
   33.1760    8.8530   19.3920 C   0  0  0  0  0  3  0  0  0  0  0  0
   36.9110    9.5490   19.9430 C   0  0  0  0  0  0  0  0  0  0  0  0
   37.9190    9.7940   19.1280 N   0  0  0  0  0  0  0  0  0  0  0  0
   37.7480   10.0110   18.1840 H   0  0  0  0  0  0  0  0  0  0  0  0
   37.1980    9.2600   21.2140 N   0  0  0  0  0  0  0  0  0  0  0  0
   38.1260    9.3210   21.5360 H   0  0  0  0  0  0  0  0  0  0  0  0
   36.4800    8.9870   21.8300 H   0  0  0  0  0  0  0  0  0  0  0  0
   28.7610   10.6040   19.0920 C   0  0  0  0  0  2  0  0  0  0  0  0
   27.3330   10.1370   18.7540 C   0  0  0  0  0  0  0  0  0  0  0  0
   27.1440    9.0330   18.2410 O   0  0  0  0  0  0  0  0  0  0  0  0
   26.2860   10.9670   19.0930 O   0  0  0  0  0  0  0  0  0  0  0  0
   25.1630   10.6000   19.8880 C   0  0  0  0  0  1  0  0  0  0  0  0
  1 14  1  1  0  0  0
  1  2  1  0  0  0  0
  1 28  1  0  0  0  0
  2  3  1  0  0  0  0
  4  3  2  0  0  0  0
  5  4  1  0  0  0  0
  6  7  1  0  0  0  0
  6  5  2  0  0  0  0
  7  2  2  0  0  0  0
  8  6  1  0  0  0  0
  9 10  1  0  0  0  0
  9  8  2  0  0  0  0
 11  8  1  0  0  0  0
 12 11  1  0  0  0  0
 13 11  1  0  0  0  0
 15 14  1  0  0  0  0
 15 16  1  0  0  0  0
 16 21  1  0  0  0  0
 17 16  2  0  0  0  0
 17 18  1  0  0  0  0
 18 19  2  0  0  0  0
 19 20  1  0  0  0  0
 19 22  1  0  0  0  0
 21 20  2  0  0  0  0
 22 25  1  0  0  0  0
 23 22  2  0  0  0  0
 24 23  1  0  0  0  0
 25 26  1  0  0  0  0
 25 27  1  0  0  0  0
 29 28  1  0  0  0  0
 29 31  1  0  0  0  0
 30 29  2  0  0  0  0
 31 32  1  0  0  0  0
M  END
>  <Pose>
3

>  <Score>
-7.313

$$$$
1AZ8_lig_vina_out.pdbqt
 OpenBabel02072218533D

 32 33  0  0  1  0  0  0  0  0999 V2000
   29.4580   11.6570   18.1420 C   0  0  1  0  0  3  0  0  0  0  0  0
   29.0830   13.0670   18.1300 C   0  0  0  0  0  0  0  0  0  0  0  0
   28.5350   13.7530   19.2300 C   0  0  0  0  0  3  0  0  0  0  0  0
   28.2080   15.1050   19.1180 C   0  0  0  0  0  3  0  0  0  0  0  0
   28.4310   15.7510   17.9080 C   0  0  0  0  0  3  0  0  0  0  0  0
   29.0180   15.0690   16.8380 C   0  0  0  0  0  0  0  0  0  0  0  0
   29.3360   13.7330   16.9470 C   0  0  0  0  0  3  0  0  0  0  0  0
   29.2800   15.7640   15.5440 C   0  0  0  0  0  0  0  0  0  0  0  0
   28.6460   16.8770   15.3080 N   0  0  0  0  0  0  0  0  0  0  0  0
   28.0380   17.2500   15.9860 H   0  0  0  0  0  0  0  0  0  0  0  0
   30.0840   15.2920   14.6190 N   0  0  0  0  0  0  0  0  0  0  0  0
   31.0530   15.4510   14.6820 H   0  0  0  0  0  0  0  0  0  0  0  0
   29.7160   14.7790   13.8640 H   0  0  0  0  0  0  0  0  0  0  0  0
   28.2870   10.9000   18.7380 C   0  0  0  0  0  2  0  0  0  0  0  0
   27.0740   10.8300   17.8340 C   0  0  0  0  0  2  0  0  0  0  0  0
   25.9830   10.0890   18.5720 C   0  0  0  0  0  0  0  0  0  0  0  0
   25.3840    8.9990   17.9500 C   0  0  0  0  0  3  0  0  0  0  0  0
   24.4120    8.2630   18.6340 C   0  0  0  0  0  3  0  0  0  0  0  0
   23.9760    8.6400   19.9200 C   0  0  0  0  0  0  0  0  0  0  0  0
   24.5640    9.7620   20.5280 C   0  0  0  0  0  3  0  0  0  0  0  0
   25.5760   10.4620   19.8650 C   0  0  0  0  0  3  0  0  0  0  0  0
   22.8610    7.8490   20.5950 C   0  0  0  0  0  0  0  0  0  0  0  0
   22.5970    8.0370   21.8740 N   0  0  0  0  0  0  0  0  0  0  0  0
   23.1280    8.6790   22.3970 H   0  0  0  0  0  0  0  0  0  0  0  0
   22.1110    6.9670   19.9300 N   0  0  0  0  0  0  0  0  0  0  0  0
   21.7790    6.1600   20.3870 H   0  0  0  0  0  0  0  0  0  0  0  0
   21.8900    7.1230   18.9830 H   0  0  0  0  0  0  0  0  0  0  0  0
   29.9280   11.0980   16.7770 C   0  0  0  0  0  2  0  0  0  0  0  0
   30.8870    9.8940   16.8170 C   0  0  0  0  0  0  0  0  0  0  0  0
   30.4430    8.7470   16.8640 O   0  0  0  0  0  0  0  0  0  0  0  0
   32.2410   10.1450   16.7440 O   0  0  0  0  0  0  0  0  0  0  0  0
   33.1330   10.1930   17.8530 C   0  0  0  0  0  1  0  0  0  0  0  0
  1 28  1  6  0  0  0
  1 14  1  0  0  0  0
  2  1  1  0  0  0  0
  2  3  1  0  0  0  0
  4  3  2  0  0  0  0
  5  4  1  0  0  0  0
  6  7  1  0  0  0  0
  6  5  2  0  0  0  0
  7  2  2  0  0  0  0
  8  6  1  0  0  0  0
  9  8  2  0  0  0  0
  9 10  1  0  0  0  0
 11 12  1  0  0  0  0
 11  8  1  0  0  0  0
 13 11  1  0  0  0  0
 15 16  1  0  0  0  0
 15 14  1  0  0  0  0
 16 21  1  0  0  0  0
 17 16  2  0  0  0  0
 17 18  1  0  0  0  0
 18 19  2  0  0  0  0
 19 20  1  0  0  0  0
 19 22  1  0  0  0  0
 21 20  2  0  0  0  0
 22 23  2  0  0  0  0
 23 24  1  0  0  0  0
 25 26  1  0  0  0  0
 25 22  1  0  0  0  0
 27 25  1  0  0  0  0
 28 29  1  0  0  0  0
 29 30  2  0  0  0  0
 31 29  1  0  0  0  0
 31 32  1  0  0  0  0
M  END
>  <Pose>
4

>  <Score>
-7.133

$$$$
1AZ8_lig_vina_out.pdbqt
 OpenBabel02072218533D

 32 33  0  0  1  0  0  0  0  0999 V2000
   27.9630   10.0780   20.4770 C   0  0  1  0  0  3  0  0  0  0  0  0
   27.0620    9.7210   19.3870 C   0  0  0  0  0  0  0  0  0  0  0  0
   25.6580    9.7970   19.4590 C   0  0  0  0  0  3  0  0  0  0  0  0
   24.8810    9.4310   18.3590 C   0  0  0  0  0  3  0  0  0  0  0  0
   25.5180    8.9910   17.2050 C   0  0  0  0  0  3  0  0  0  0  0  0
   26.9140    8.9630   17.1320 C   0  0  0  0  0  0  0  0  0  0  0  0
   27.6800    9.3190   18.2200 C   0  0  0  0  0  3  0  0  0  0  0  0
   27.6020    8.5120   15.8870 C   0  0  0  0  0  0  0  0  0  0  0  0
   26.8660    8.0820   14.9020 N   0  0  0  0  0  0  0  0  0  0  0  0
   25.8850    8.0890   14.9820 H   0  0  0  0  0  0  0  0  0  0  0  0
   28.9080    8.4890   15.7500 N   0  0  0  0  0  0  0  0  0  0  0  0
   29.3110    8.5990   14.8600 H   0  0  0  0  0  0  0  0  0  0  0  0
   29.4820    8.3620   16.5400 H   0  0  0  0  0  0  0  0  0  0  0  0
   28.9870   11.0360   19.9000 C   0  0  0  0  0  2  0  0  0  0  0  0
   28.7770   12.4800   20.3040 C   0  0  0  0  0  2  0  0  0  0  0  0
   28.9070   13.3360   19.0650 C   0  0  0  0  0  0  0  0  0  0  0  0
   29.5450   12.8010   17.9520 C   0  0  0  0  0  3  0  0  0  0  0  0
   29.6280   13.5520   16.7770 C   0  0  0  0  0  3  0  0  0  0  0  0
   29.1350   14.8710   16.7120 C   0  0  0  0  0  0  0  0  0  0  0  0
   28.5200   15.4150   17.8510 C   0  0  0  0  0  3  0  0  0  0  0  0
   28.3880   14.6410   19.0080 C   0  0  0  0  0  3  0  0  0  0  0  0
   29.3150   15.6760   15.4290 C   0  0  0  0  0  0  0  0  0  0  0  0
   29.0220   16.9620   15.4090 N   0  0  0  0  0  0  0  0  0  0  0  0
   28.6750   17.4010   16.2190 H   0  0  0  0  0  0  0  0  0  0  0  0
   29.7820   15.1290   14.3050 N   0  0  0  0  0  0  0  0  0  0  0  0
   30.7530   15.0880   14.1430 H   0  0  0  0  0  0  0  0  0  0  0  0
   29.1560   14.7650   13.6370 H   0  0  0  0  0  0  0  0  0  0  0  0
   27.2620   10.6120   21.7500 C   0  0  0  0  0  2  0  0  0  0  0  0
   28.0820   10.5820   23.0530 C   0  0  0  0  0  0  0  0  0  0  0  0
   28.6650    9.5540   23.3990 O   0  0  0  0  0  0  0  0  0  0  0  0
   28.1790   11.7500   23.7810 O   0  0  0  0  0  0  0  0  0  0  0  0
   29.2240   12.0700   24.6940 C   0  0  0  0  0  1  0  0  0  0  0  0
  1 14  1  6  0  0  0
  1 28  1  0  0  0  0
  2  3  1  0  0  0  0
  2  1  1  0  0  0  0
  4  3  2  0  0  0  0
  5  4  1  0  0  0  0
  6  5  2  0  0  0  0
  6  7  1  0  0  0  0
  7  2  2  0  0  0  0
  8  6  1  0  0  0  0
  9 10  1  0  0  0  0
  9  8  2  0  0  0  0
 11  8  1  0  0  0  0
 11 13  1  0  0  0  0
 12 11  1  0  0  0  0
 14 15  1  0  0  0  0
 16 15  1  0  0  0  0
 17 16  2  0  0  0  0
 18 17  1  0  0  0  0
 19 18  2  0  0  0  0
 19 20  1  0  0  0  0
 20 21  2  0  0  0  0
 21 16  1  0  0  0  0
 22 19  1  0  0  0  0
 23 22  2  0  0  0  0
 23 24  1  0  0  0  0
 25 22  1  0  0  0  0
 26 25  1  0  0  0  0
 27 25  1  0  0  0  0
 28 29  1  0  0  0  0
 29 30  2  0  0  0  0
 29 31  1  0  0  0  0
 31 32  1  0  0  0  0
M  END
>  <Pose>
5

>  <Score>
-6.911

$$$$
1AZ8_lig_vina_out.pdbqt
 OpenBabel02072218533D

 32 33  0  0  1  0  0  0  0  0999 V2000
   27.4420   11.8570   20.0630 C   0  0  1  0  0  3  0  0  0  0  0  0
   28.1310   12.3820   18.8890 C   0  0  0  0  0  0  0  0  0  0  0  0
   28.8110   11.5880   17.9450 C   0  0  0  0  0  3  0  0  0  0  0  0
   29.4420   12.1870   16.8550 C   0  0  0  0  0  3  0  0  0  0  0  0
   29.3870   13.5700   16.7240 C   0  0  0  0  0  3  0  0  0  0  0  0
   28.6700   14.3410   17.6430 C   0  0  0  0  0  0  0  0  0  0  0  0
   28.0520   13.7500   18.7230 C   0  0  0  0  0  3  0  0  0  0  0  0
   28.5900   15.8240   17.4940 C   0  0  0  0  0  0  0  0  0  0  0  0
   29.0860   16.5620   18.4450 N   0  0  0  0  0  0  0  0  0  0  0  0
   29.5250   16.1390   19.2180 H   0  0  0  0  0  0  0  0  0  0  0  0
   28.0110   16.4170   16.4770 N   0  0  0  0  0  0  0  0  0  0  0  0
   28.4220   17.2150   16.0740 H   0  0  0  0  0  0  0  0  0  0  0  0
   27.1660   16.0640   16.1170 H   0  0  0  0  0  0  0  0  0  0  0  0
   26.0600   11.4340   19.6030 C   0  0  0  0  0  2  0  0  0  0  0  0
   26.0310   10.1030   18.8820 C   0  0  0  0  0  2  0  0  0  0  0  0
   24.9500    9.2530   19.5100 C   0  0  0  0  0  0  0  0  0  0  0  0
   24.5950    9.5010   20.8320 C   0  0  0  0  0  3  0  0  0  0  0  0
   23.5600    8.7670   21.4170 C   0  0  0  0  0  3  0  0  0  0  0  0
   22.9070    7.7330   20.7170 C   0  0  0  0  0  0  0  0  0  0  0  0
   23.2930    7.4690   19.3920 C   0  0  0  0  0  3  0  0  0  0  0  0
   24.2900    8.2420   18.7910 C   0  0  0  0  0  3  0  0  0  0  0  0
   21.8340    6.9110   21.4240 C   0  0  0  0  0  0  0  0  0  0  0  0
   20.9780    7.5000   22.2380 N   0  0  0  0  0  0  0  0  0  0  0  0
   21.0400    8.4690   22.3990 H   0  0  0  0  0  0  0  0  0  0  0  0
   21.7080    5.5950   21.2390 N   0  0  0  0  0  0  0  0  0  0  0  0
   21.7570    4.9820   22.0080 H   0  0  0  0  0  0  0  0  0  0  0  0
   21.5650    5.2370   20.3320 H   0  0  0  0  0  0  0  0  0  0  0  0
   28.2090   10.7480   20.8240 C   0  0  0  0  0  2  0  0  0  0  0  0
   27.9290   10.6270   22.3340 C   0  0  0  0  0  0  0  0  0  0  0  0
   27.4300    9.5990   22.7940 O   0  0  0  0  0  0  0  0  0  0  0  0
   28.3020   11.6780   23.1460 O   0  0  0  0  0  0  0  0  0  0  0  0
   28.8540   11.5570   24.4520 C   0  0  0  0  0  1  0  0  0  0  0  0
  1 14  1  6  0  0  0
  1 28  1  0  0  0  0
  2  1  1  0  0  0  0
  3  2  2  0  0  0  0
  4  3  1  0  0  0  0
  5  4  2  0  0  0  0
  5  6  1  0  0  0  0
  6  7  2  0  0  0  0
  7  2  1  0  0  0  0
  8  6  1  0  0  0  0
  8  9  2  0  0  0  0
  9 10  1  0  0  0  0
 11  8  1  0  0  0  0
 12 11  1  0  0  0  0
 13 11  1  0  0  0  0
 15 16  1  0  0  0  0
 15 14  1  0  0  0  0
 16 17  1  0  0  0  0
 17 18  2  0  0  0  0
 19 18  1  0  0  0  0
 19 22  1  0  0  0  0
 20 19  2  0  0  0  0
 21 20  1  0  0  0  0
 21 16  2  0  0  0  0
 22 23  2  0  0  0  0
 23 24  1  0  0  0  0
 25 22  1  0  0  0  0
 25 26  1  0  0  0  0
 27 25  1  0  0  0  0
 28 29  1  0  0  0  0
 29 30  2  0  0  0  0
 29 31  1  0  0  0  0
 31 32  1  0  0  0  0
M  END
>  <Pose>
6

>  <Score>
-6.887

$$$$
1AZ8_lig_vina_out.pdbqt
 OpenBabel02072218533D

 32 33  0  0  1  0  0  0  0  0999 V2000
   26.9720   10.1590   20.2280 C   0  0  1  0  0  3  0  0  0  0  0  0
   26.1900    9.6870   19.0900 C   0  0  0  0  0  0  0  0  0  0  0  0
   26.5120    9.9420   17.7440 C   0  0  0  0  0  3  0  0  0  0  0  0
   25.6970    9.4460   16.7250 C   0  0  0  0  0  3  0  0  0  0  0  0
   24.5720    8.7050   17.0660 C   0  0  0  0  0  3  0  0  0  0  0  0
   24.2890    8.4220   18.4060 C   0  0  0  0  0  0  0  0  0  0  0  0
   25.0900    8.9160   19.4110 C   0  0  0  0  0  3  0  0  0  0  0  0
   23.0940    7.6080   18.7760 C   0  0  0  0  0  0  0  0  0  0  0  0
   22.3280    7.1750   17.8160 N   0  0  0  0  0  0  0  0  0  0  0  0
   22.5600    7.3630   16.8780 H   0  0  0  0  0  0  0  0  0  0  0  0
   22.7570    7.3420   20.0160 N   0  0  0  0  0  0  0  0  0  0  0  0
   23.1090    7.8940   20.7510 H   0  0  0  0  0  0  0  0  0  0  0  0
   22.1520    6.5900   20.2110 H   0  0  0  0  0  0  0  0  0  0  0  0
   27.0460   11.6690   20.1090 C   0  0  0  0  0  2  0  0  0  0  0  0
   28.4460   12.2300   20.2480 C   0  0  0  0  0  2  0  0  0  0  0  0
   28.7030   13.1430   19.0710 C   0  0  0  0  0  0  0  0  0  0  0  0
   29.3040   12.6090   17.9360 C   0  0  0  0  0  3  0  0  0  0  0  0
   29.5000   13.4190   16.8140 C   0  0  0  0  0  3  0  0  0  0  0  0
   29.1620   14.7870   16.8280 C   0  0  0  0  0  0  0  0  0  0  0  0
   28.5840   15.3250   17.9910 C   0  0  0  0  0  3  0  0  0  0  0  0
   28.3370   14.5000   19.0910 C   0  0  0  0  0  3  0  0  0  0  0  0
   29.4640   15.6470   15.6050 C   0  0  0  0  0  0  0  0  0  0  0  0
   28.9150   16.8400   15.4840 N   0  0  0  0  0  0  0  0  0  0  0  0
   28.3010   17.1720   16.1770 H   0  0  0  0  0  0  0  0  0  0  0  0
   30.2900   15.2420   14.6380 N   0  0  0  0  0  0  0  0  0  0  0  0
   30.5250   15.8540   13.9020 H   0  0  0  0  0  0  0  0  0  0  0  0
   30.6650   14.3320   14.6600 H   0  0  0  0  0  0  0  0  0  0  0  0
   26.4710    9.6690   21.6080 C   0  0  0  0  0  2  0  0  0  0  0  0
   27.5420    9.1700   22.5950 C   0  0  0  0  0  0  0  0  0  0  0  0
   27.6780    7.9640   22.8090 O   0  0  0  0  0  0  0  0  0  0  0  0
   28.3680   10.1070   23.1800 O   0  0  0  0  0  0  0  0  0  0  0  0
   27.9400   11.1810   24.0100 C   0  0  0  0  0  1  0  0  0  0  0  0
  1 14  1  1  0  0  0
  1 28  1  0  0  0  0
  2  7  1  0  0  0  0
  2  1  1  0  0  0  0
  3  2  2  0  0  0  0
  4  5  2  0  0  0  0
  4  3  1  0  0  0  0
  5  6  1  0  0  0  0
  6  8  1  0  0  0  0
  6  7  2  0  0  0  0
  8 11  1  0  0  0  0
  9  8  2  0  0  0  0
 10  9  1  0  0  0  0
 11 13  1  0  0  0  0
 11 12  1  0  0  0  0
 14 15  1  0  0  0  0
 16 21  1  0  0  0  0
 16 15  1  0  0  0  0
 17 16  2  0  0  0  0
 18 19  2  0  0  0  0
 18 17  1  0  0  0  0
 19 20  1  0  0  0  0
 20 21  2  0  0  0  0
 22 19  1  0  0  0  0
 23 22  2  0  0  0  0
 23 24  1  0  0  0  0
 25 27  1  0  0  0  0
 25 22  1  0  0  0  0
 26 25  1  0  0  0  0
 28 29  1  0  0  0  0
 29 30  2  0  0  0  0
 29 31  1  0  0  0  0
 31 32  1  0  0  0  0
M  END
>  <Pose>
7

>  <Score>
-6.876

$$$$
1AZ8_lig_vina_out.pdbqt
 OpenBabel02072218533D

 32 33  0  0  1  0  0  0  0  0999 V2000
   26.5780   10.1270   19.0740 C   0  0  1  0  0  3  0  0  0  0  0  0
   25.3910    9.4730   19.6120 C   0  0  0  0  0  0  0  0  0  0  0  0
   24.9510    9.5940   20.9440 C   0  0  0  0  0  3  0  0  0  0  0  0
   23.8000    8.9260   21.3630 C   0  0  0  0  0  3  0  0  0  0  0  0
   23.1060    8.1450   20.4470 C   0  0  0  0  0  3  0  0  0  0  0  0
   23.5280    8.0700   19.1160 C   0  0  0  0  0  0  0  0  0  0  0  0
   24.6680    8.7250   18.7040 C   0  0  0  0  0  3  0  0  0  0  0  0
   22.7740    7.2500   18.1230 C   0  0  0  0  0  0  0  0  0  0  0  0
   23.3110    7.0610   16.9520 N   0  0  0  0  0  0  0  0  0  0  0  0
   24.2020    7.4290   16.7540 H   0  0  0  0  0  0  0  0  0  0  0  0
   21.5840    6.7470   18.3560 N   0  0  0  0  0  0  0  0  0  0  0  0
   20.7830    7.1880   17.9920 H   0  0  0  0  0  0  0  0  0  0  0  0
   21.4940    5.9290   18.8960 H   0  0  0  0  0  0  0  0  0  0  0  0
   26.7050   11.4580   19.7880 C   0  0  0  0  0  2  0  0  0  0  0  0
   28.1330   11.9220   19.9790 C   0  0  0  0  0  2  0  0  0  0  0  0
   28.4830   12.8440   18.8340 C   0  0  0  0  0  0  0  0  0  0  0  0
   28.2300   14.2040   18.9760 C   0  0  0  0  0  3  0  0  0  0  0  0
   28.5960   15.0840   17.9540 C   0  0  0  0  0  3  0  0  0  0  0  0
   29.1600   14.6170   16.7490 C   0  0  0  0  0  0  0  0  0  0  0  0
   29.3830   13.2370   16.6020 C   0  0  0  0  0  3  0  0  0  0  0  0
   29.0670   12.3650   17.6490 C   0  0  0  0  0  3  0  0  0  0  0  0
   29.4740   15.6080   15.6350 C   0  0  0  0  0  0  0  0  0  0  0  0
   30.2880   15.2650   14.6540 N   0  0  0  0  0  0  0  0  0  0  0  0
   30.7030   14.3730   14.6490 H   0  0  0  0  0  0  0  0  0  0  0  0
   28.9380   16.8300   15.5960 N   0  0  0  0  0  0  0  0  0  0  0  0
   29.4240   17.5940   15.9820 H   0  0  0  0  0  0  0  0  0  0  0  0
   28.0550   16.9670   15.1820 H   0  0  0  0  0  0  0  0  0  0  0  0
   27.8680    9.2720   19.1220 C   0  0  0  0  0  2  0  0  0  0  0  0
   28.4260    8.7860   17.7710 C   0  0  0  0  0  0  0  0  0  0  0  0
   27.7230    8.8180   16.7600 O   0  0  0  0  0  0  0  0  0  0  0  0
   29.7390    8.3690   17.7280 O   0  0  0  0  0  0  0  0  0  0  0  0
   30.8050    9.0600   17.0850 C   0  0  0  0  0  1  0  0  0  0  0  0
  1 28  1  1  0  0  0
  1  2  1  0  0  0  0
  1 14  1  0  0  0  0
  2  3  1  0  0  0  0
  3  4  2  0  0  0  0
  5  4  1  0  0  0  0
  6  5  2  0  0  0  0
  7  6  1  0  0  0  0
  7  2  2  0  0  0  0
  8 11  1  0  0  0  0
  8  6  1  0  0  0  0
  9  8  2  0  0  0  0
 10  9  1  0  0  0  0
 11 13  1  0  0  0  0
 12 11  1  0  0  0  0
 14 15  1  0  0  0  0
 16 17  1  0  0  0  0
 16 15  1  0  0  0  0
 18 17  2  0  0  0  0
 19 18  1  0  0  0  0
 20 19  2  0  0  0  0
 20 21  1  0  0  0  0
 21 16  2  0  0  0  0
 22 19  1  0  0  0  0
 23 22  2  0  0  0  0
 24 23  1  0  0  0  0
 25 22  1  0  0  0  0
 25 26  1  0  0  0  0
 27 25  1  0  0  0  0
 29 28  1  0  0  0  0
 30 29  2  0  0  0  0
 31 29  1  0  0  0  0
 32 31  1  0  0  0  0
M  END
>  <Pose>
8

>  <Score>
-6.786

$$$$
1AZ8_lig_vina_out.pdbqt
 OpenBabel02072218533D

 32 33  0  0  1  0  0  0  0  0999 V2000
   28.1980   10.3050   18.0880 C   0  0  1  0  0  3  0  0  0  0  0  0
   26.8720    9.7280   17.8980 C   0  0  0  0  0  0  0  0  0  0  0  0
   25.9590    9.4740   18.9400 C   0  0  0  0  0  3  0  0  0  0  0  0
   24.7120    8.9180   18.6550 C   0  0  0  0  0  3  0  0  0  0  0  0
   24.3950    8.6220   17.3340 C   0  0  0  0  0  3  0  0  0  0  0  0
   25.2930    8.9210   16.3050 C   0  0  0  0  0  0  0  0  0  0  0  0
   26.5260    9.4650   16.5880 C   0  0  0  0  0  3  0  0  0  0  0  0
   24.9480    8.6250   14.8840 C   0  0  0  0  0  0  0  0  0  0  0  0
   23.7430    8.2070   14.6210 N   0  0  0  0  0  0  0  0  0  0  0  0
   23.0820    8.1230   15.3460 H   0  0  0  0  0  0  0  0  0  0  0  0
   25.8060    8.7270   13.8960 N   0  0  0  0  0  0  0  0  0  0  0  0
   26.1840    7.9150   13.4880 H   0  0  0  0  0  0  0  0  0  0  0  0
   26.0710    9.6150   13.5640 H   0  0  0  0  0  0  0  0  0  0  0  0
   28.2130   10.9180   19.4750 C   0  0  0  0  0  2  0  0  0  0  0  0
   29.3360   11.9080   19.6990 C   0  0  0  0  0  2  0  0  0  0  0  0
   29.0920   13.1040   18.8070 C   0  0  0  0  0  0  0  0  0  0  0  0
   28.0900   14.0010   19.1600 C   0  0  0  0  0  3  0  0  0  0  0  0
   27.8830   15.1430   18.3830 C   0  0  0  0  0  3  0  0  0  0  0  0
   28.6250   15.3760   17.2070 C   0  0  0  0  0  0  0  0  0  0  0  0
   29.6140   14.4480   16.8410 C   0  0  0  0  0  3  0  0  0  0  0  0
   29.8580   13.3350   17.6510 C   0  0  0  0  0  3  0  0  0  0  0  0
   28.3110   16.6000   16.3530 C   0  0  0  0  0  0  0  0  0  0  0  0
   29.1670   17.0010   15.4320 N   0  0  0  0  0  0  0  0  0  0  0  0
   30.0150   16.5180   15.3040 H   0  0  0  0  0  0  0  0  0  0  0  0
   27.1750   17.2890   16.4860 N   0  0  0  0  0  0  0  0  0  0  0  0
   26.3930   16.8710   16.9140 H   0  0  0  0  0  0  0  0  0  0  0  0
   27.1200   18.2160   16.1570 H   0  0  0  0  0  0  0  0  0  0  0  0
   29.3730    9.3300   17.8280 C   0  0  0  0  0  2  0  0  0  0  0  0
   30.1860    9.5570   16.5400 C   0  0  0  0  0  0  0  0  0  0  0  0
   31.0120   10.4680   16.4790 O   0  0  0  0  0  0  0  0  0  0  0  0
   29.9950    8.6800   15.4940 O   0  0  0  0  0  0  0  0  0  0  0  0
   29.3570    7.4110   15.5850 C   0  0  0  0  0  1  0  0  0  0  0  0
  1 28  1  1  0  0  0
  1 14  1  0  0  0  0
  2  1  1  0  0  0  0
  2  3  1  0  0  0  0
  4  3  2  0  0  0  0
  5  4  1  0  0  0  0
  6  7  1  0  0  0  0
  6  5  2  0  0  0  0
  7  2  2  0  0  0  0
  8  6  1  0  0  0  0
  9  8  2  0  0  0  0
  9 10  1  0  0  0  0
 11  8  1  0  0  0  0
 12 11  1  0  0  0  0
 13 11  1  0  0  0  0
 14 15  1  0  0  0  0
 16 17  1  0  0  0  0
 16 15  1  0  0  0  0
 18 17  2  0  0  0  0
 19 18  1  0  0  0  0
 20 19  2  0  0  0  0
 20 21  1  0  0  0  0
 21 16  2  0  0  0  0
 22 25  1  0  0  0  0
 22 19  1  0  0  0  0
 23 22  2  0  0  0  0
 24 23  1  0  0  0  0
 25 26  1  0  0  0  0
 27 25  1  0  0  0  0
 29 28  1  0  0  0  0
 30 29  2  0  0  0  0
 31 32  1  0  0  0  0
 31 29  1  0  0  0  0
M  END
>  <Pose>
9

>  <Score>
-6.779

$$$$
1AZ8_lig_vina_out.pdbqt
 OpenBabel02072218533D

 32 33  0  0  1  0  0  0  0  0999 V2000
   31.7330    9.3780   18.7980 C   0  0  1  0  0  3  0  0  0  0  0  0
   33.1030    9.7210   18.4330 C   0  0  0  0  0  0  0  0  0  0  0  0
   33.5080   10.1080   17.1410 C   0  0  0  0  0  3  0  0  0  0  0  0
   34.8460   10.4160   16.8920 C   0  0  0  0  0  3  0  0  0  0  0  0
   35.7600   10.3310   17.9350 C   0  0  0  0  0  3  0  0  0  0  0  0
   35.3360    9.9890   19.2230 C   0  0  0  0  0  0  0  0  0  0  0  0
   34.0170    9.6790   19.4680 C   0  0  0  0  0  3  0  0  0  0  0  0
   36.3110    9.9170   20.3510 C   0  0  0  0  0  0  0  0  0  0  0  0
   36.2860   10.8660   21.2420 N   0  0  0  0  0  0  0  0  0  0  0  0
   35.6180   11.5860   21.1750 H   0  0  0  0  0  0  0  0  0  0  0  0
   37.2130    8.9700   20.4670 N   0  0  0  0  0  0  0  0  0  0  0  0
   38.0460    9.1430   20.9620 H   0  0  0  0  0  0  0  0  0  0  0  0
   37.0560    8.0880   20.0590 H   0  0  0  0  0  0  0  0  0  0  0  0
   30.8360   10.4120   18.1470 C   0  0  0  0  0  2  0  0  0  0  0  0
   29.9780   11.1870   19.1240 C   0  0  0  0  0  2  0  0  0  0  0  0
   29.5880   12.4930   18.4720 C   0  0  0  0  0  0  0  0  0  0  0  0
   30.0030   12.7330   17.1670 C   0  0  0  0  0  3  0  0  0  0  0  0
   29.6080   13.9090   16.5230 C   0  0  0  0  0  3  0  0  0  0  0  0
   28.8500   14.8920   17.1890 C   0  0  0  0  0  0  0  0  0  0  0  0
   28.4620   14.6550   18.5190 C   0  0  0  0  0  3  0  0  0  0  0  0
   28.8100   13.4530   19.1420 C   0  0  0  0  0  3  0  0  0  0  0  0
   28.5070   16.1910   16.4680 C   0  0  0  0  0  0  0  0  0  0  0  0
   27.4680   16.9070   16.8530 N   0  0  0  0  0  0  0  0  0  0  0  0
   26.9060   16.5980   17.6000 H   0  0  0  0  0  0  0  0  0  0  0  0
   29.2370   16.6540   15.4500 N   0  0  0  0  0  0  0  0  0  0  0  0
   30.1510   16.9830   15.6100 H   0  0  0  0  0  0  0  0  0  0  0  0
   28.8600   16.6670   14.5410 H   0  0  0  0  0  0  0  0  0  0  0  0
   31.3250    7.9180   18.4860 C   0  0  0  0  0  2  0  0  0  0  0  0
   30.5400    7.6840   17.1820 C   0  0  0  0  0  0  0  0  0  0  0  0
   31.1350    7.5750   16.1090 O   0  0  0  0  0  0  0  0  0  0  0  0
   29.1700    7.5490   17.2680 O   0  0  0  0  0  0  0  0  0  0  0  0
   28.4140    7.5500   18.4750 C   0  0  0  0  0  1  0  0  0  0  0  0
  1 14  1  6  0  0  0
  2  1  1  0  0  0  0
  2  7  1  0  0  0  0
  3  2  2  0  0  0  0
  4  3  1  0  0  0  0
  4  5  2  0  0  0  0
  5  6  1  0  0  0  0
  6  7  2  0  0  0  0
  6  8  1  0  0  0  0
  8 11  1  0  0  0  0
  8  9  2  0  0  0  0
 10  9  1  0  0  0  0
 11 12  1  0  0  0  0
 13 11  1  0  0  0  0
 14 15  1  0  0  0  0
 16 15  1  0  0  0  0
 16 21  1  0  0  0  0
 17 16  2  0  0  0  0
 18 17  1  0  0  0  0
 18 19  2  0  0  0  0
 19 20  1  0  0  0  0
 20 21  2  0  0  0  0
 22 23  2  0  0  0  0
 22 19  1  0  0  0  0
 23 24  1  0  0  0  0
 25 26  1  0  0  0  0
 25 22  1  0  0  0  0
 27 25  1  0  0  0  0
 28  1  1  0  0  0  0
 29 31  1  0  0  0  0
 29 28  1  0  0  0  0
 30 29  2  0  0  0  0
 31 32  1  0  0  0  0
M  END
>  <Pose>
10

>  <Score>
-6.742

$$$$
